<?xml version="1.0" encoding="UTF-8"?>

<!-- generated on 2026-03-15T17:13:26.917704+05:30 by Eclipse SUMO netconvert 1.26.0
<netconvertConfiguration xmlns:xsi="http://www.w3.org/2001/XMLSchema-instance" xsi:noNamespaceSchemaLocation="http://sumo.dlr.de/xsd/netconvertConfiguration.xsd">

    <input>
        <node-files value="grid.nod.xml"/>
        <edge-files value="grid.edg.xml"/>
    </input>

    <output>
        <output-file value="grid.net.xml"/>
    </output>

    <building_defaults>
        <default.lanewidth value="4.0"/>
    </building_defaults>

    <junctions>
        <no-turnarounds value="true"/>
    </junctions>

</netconvertConfiguration>
-->

<net version="1.20" junctionCornerDetail="5" limitTurnSpeed="5.50" xmlns:xsi="http://www.w3.org/2001/XMLSchema-instance" xsi:noNamespaceSchemaLocation="http://sumo.dlr.de/xsd/net_file.xsd">

    <location netOffset="103.00,102.00" convBoundary="0.00,0.00,341.00,355.00" origBoundary="-103.00,-102.00,238.00,253.00" projParameter="!"/>

    <edge id=":J0_0" function="internal">
        <lane id=":J0_0_0" index="0" speed="12.71" length="16.51" width="4.00" shape="119.87,240.74 114.20,240.69 109.66,241.15 106.25,242.13 103.97,243.62"/>
        <lane id=":J0_0_1" index="1" speed="13.89" length="19.86" width="4.00" shape="120.07,236.74 113.53,236.73 108.19,237.41 104.05,238.77 101.11,240.82"/>
    </edge>
    <edge id=":J0_2" function="internal">
        <lane id=":J0_2_0" index="0" speed="9.67" length="26.24" width="4.00" shape="120.07,236.74 112.63,235.31 108.26,231.90 106.97,226.51 108.75,219.15"/>
    </edge>
    <edge id=":J0_3" function="internal">
        <lane id=":J0_3_0" index="0" speed="6.23" length="9.92" width="4.00" shape="116.18,222.10 115.51,224.89 116.00,226.92 117.65,228.21 120.46,228.75"/>
    </edge>
    <edge id=":J0_4" function="internal">
        <lane id=":J0_4_0" index="0" speed="13.89" length="24.18" width="4.00" shape="116.18,222.10 113.70,228.38 111.32,233.67 108.31,238.55 103.97,243.62"/>
        <lane id=":J0_4_1" index="1" speed="13.89" length="24.18" width="4.00" shape="112.47,220.62 110.12,226.70 108.03,231.53 105.32,235.96 101.11,240.82"/>
    </edge>
    <edge id=":J0_6" function="internal">
        <lane id=":J0_6_0" index="0" speed="13.89" length="21.05" width="4.00" shape="95.40,235.22 99.34,230.77 101.46,227.25 102.95,223.33 105.03,217.67"/>
        <lane id=":J0_6_1" index="1" speed="13.89" length="21.05" width="4.00" shape="98.26,238.02 102.33,233.36 104.74,229.39 106.54,225.01 108.75,219.15"/>
    </edge>
    <edge id=":J0_8" function="internal">
        <lane id=":J0_8_0" index="0" speed="13.89" length="4.57" width="4.00" shape="98.26,238.02 101.86,235.42 101.98,235.37"/>
    </edge>
    <edge id=":J0_9" function="internal">
        <lane id=":J0_9_0" index="0" speed="13.89" length="18.65" width="4.00" shape="101.98,235.37 106.73,233.67 112.87,232.78 120.27,232.75"/>
    </edge>
    <edge id=":J1_0" function="internal">
        <lane id=":J1_0_0" index="0" speed="13.89" length="25.38" width="4.00" shape="214.61,246.00 189.45,244.15"/>
        <lane id=":J1_0_1" index="1" speed="13.89" length="25.38" width="4.00" shape="215.10,242.03 189.64,240.15"/>
    </edge>
    <edge id=":J1_2" function="internal">
        <lane id=":J1_2_0" index="0" speed="13.89" length="4.51" width="4.00" shape="215.10,242.03 210.83,240.59"/>
    </edge>
    <edge id=":J1_9" function="internal">
        <lane id=":J1_9_0" index="0" speed="13.89" length="21.23" width="4.00" shape="210.83,240.59 210.48,240.47 206.07,236.98 201.87,231.55 197.87,224.19"/>
    </edge>
    <edge id=":J1_3" function="internal">
        <lane id=":J1_3_0" index="0" speed="11.67" length="17.75" width="4.00" shape="205.11,220.80 208.02,226.38 210.82,230.45 213.51,233.02 216.10,234.09"/>
        <lane id=":J1_3_1" index="1" speed="12.87" length="21.74" width="4.00" shape="201.49,222.50 204.94,228.97 208.44,233.72 212.00,236.75 215.60,238.06"/>
    </edge>
    <edge id=":J1_5" function="internal">
        <lane id=":J1_5_0" index="0" speed="9.39" length="27.01" width="4.00" shape="201.49,222.50 203.41,229.85 201.87,235.55 197.17,239.14 189.64,240.15"/>
    </edge>
    <edge id=":J1_6" function="internal">
        <lane id=":J1_6_0" index="0" speed="6.04" length="10.12" width="4.00" shape="190.03,232.16 193.04,231.90 194.74,230.77 195.14,228.77 194.24,225.89"/>
    </edge>
    <edge id=":J1_7" function="internal">
        <lane id=":J1_7_0" index="0" speed="13.89" length="25.98" width="4.00" shape="190.03,232.16 216.10,234.09"/>
        <lane id=":J1_7_1" index="1" speed="13.89" length="25.98" width="4.00" shape="189.84,236.16 215.60,238.06"/>
    </edge>
    <edge id=":J2_0" function="internal">
        <lane id=":J2_0_0" index="0" speed="12.42" length="19.29" width="4.00" shape="285.40,259.07 283.43,256.98 279.82,255.21 274.58,253.76 267.70,252.63"/>
    </edge>
    <edge id=":J2_1" function="internal">
        <lane id=":J2_1_0" index="0" speed="13.89" length="27.02" width="4.00" shape="285.40,259.07 273.47,234.77"/>
        <lane id=":J2_1_1" index="1" speed="13.89" length="27.02" width="4.00" shape="288.96,257.25 277.08,233.03"/>
    </edge>
    <edge id=":J2_3" function="internal">
        <lane id=":J2_3_0" index="0" speed="13.89" length="26.85" width="4.00" shape="284.28,229.55 296.09,253.62"/>
        <lane id=":J2_3_1" index="1" speed="13.89" length="26.85" width="4.00" shape="280.68,231.29 292.52,255.44"/>
    </edge>
    <edge id=":J2_5" function="internal">
        <lane id=":J2_5_0" index="0" speed="9.27" length="5.43" width="4.00" shape="280.68,231.29 282.01,236.55"/>
    </edge>
    <edge id=":J2_8" function="internal">
        <lane id=":J2_8_0" index="0" speed="9.27" length="22.08" width="4.00" shape="282.01,236.55 282.57,238.73 280.80,244.55 275.85,248.08 268.20,248.67"/>
    </edge>
    <edge id=":J2_6" function="internal">
        <lane id=":J2_6_0" index="0" speed="5.96" length="10.28" width="4.00" shape="269.19,240.73 272.32,240.71 274.07,239.71 274.46,237.73 273.47,234.77"/>
    </edge>
    <edge id=":J2_7" function="internal">
        <lane id=":J2_7_0" index="0" speed="13.89" length="27.00" width="4.00" shape="268.70,244.70 277.54,246.29 284.46,248.61 289.45,251.66 292.52,255.44"/>
    </edge>
    <edge id=":J3_0" function="internal">
        <lane id=":J3_0_0" index="0" speed="6.80" length="9.47" width="4.00" shape="142.90,170.62 140.37,170.09 138.26,170.48 136.56,171.80 135.27,174.04"/>
    </edge>
    <edge id=":J3_1" function="internal">
        <lane id=":J3_1_0" index="0" speed="13.89" length="22.01" width="4.00" shape="142.90,170.62 136.86,168.32 132.26,165.99 128.29,162.82 124.09,157.99"/>
        <lane id=":J3_1_1" index="1" speed="13.89" length="22.01" width="4.00" shape="144.27,166.86 138.50,164.76 134.53,162.89 131.17,160.17 127.25,155.54"/>
    </edge>
    <edge id=":J3_3" function="internal">
        <lane id=":J3_3_0" index="0" speed="13.89" length="17.52" width="4.00" shape="133.58,150.65 136.68,154.29 139.31,156.34 142.42,157.72 147.00,159.34"/>
        <lane id=":J3_3_1" index="1" speed="13.89" length="17.52" width="4.00" shape="130.42,153.10 133.94,157.26 136.90,159.63 140.43,161.24 145.63,163.10"/>
    </edge>
    <edge id=":J3_5" function="internal">
        <lane id=":J3_5_0" index="0" speed="12.27" length="5.03" width="4.00" shape="130.42,153.10 132.69,157.16 132.76,157.53"/>
    </edge>
    <edge id=":J3_9" function="internal">
        <lane id=":J3_9_0" index="0" speed="12.27" length="15.39" width="4.00" shape="132.76,157.53 133.63,161.76 133.26,166.89 131.56,172.57"/>
    </edge>
    <edge id=":J3_6" function="internal">
        <lane id=":J3_6_0" index="0" speed="9.57" length="12.13" width="4.00" shape="124.12,169.61 125.26,166.02 125.63,162.88 125.24,160.21 124.09,157.99"/>
        <lane id=":J3_6_1" index="1" speed="11.00" length="16.28" width="4.00" shape="127.84,171.09 129.26,166.46 129.63,162.32 128.96,158.68 127.25,155.54"/>
    </edge>
    <edge id=":J3_8" function="internal">
        <lane id=":J3_8_0" index="0" speed="10.02" length="22.10" width="4.00" shape="127.84,171.09 130.83,165.85 134.80,162.78 139.73,161.86 145.63,163.10"/>
    </edge>
    <edge id=":J4_0" function="internal">
        <lane id=":J4_0_0" index="0" speed="13.89" length="28.45" width="4.00" shape="178.62,192.48 174.72,186.50 169.56,181.93 163.44,178.42 156.63,175.61"/>
    </edge>
    <edge id=":J4_1" function="internal">
        <lane id=":J4_1_0" index="0" speed="13.89" length="35.26" width="4.00" shape="178.62,192.48 175.27,184.82 171.81,176.10 168.55,167.29 165.81,159.40"/>
        <lane id=":J4_1_1" index="1" speed="13.89" length="35.26" width="4.00" shape="182.24,190.79 178.92,183.20 175.52,174.62 172.32,165.96 169.60,158.13"/>
    </edge>
    <edge id=":J4_3" function="internal">
        <lane id=":J4_3_0" index="0" speed="9.73" length="7.51" width="4.00" shape="182.24,190.79 180.15,183.91 180.20,183.59"/>
    </edge>
    <edge id=":J4_16" function="internal">
        <lane id=":J4_16_0" index="0" speed="9.73" length="17.74" width="4.00" shape="180.20,183.59 181.02,178.54 184.86,174.69 191.66,172.35"/>
    </edge>
    <edge id=":J4_4" function="internal">
        <lane id=":J4_4_0" index="0" speed="6.34" length="9.84" width="4.00" shape="193.16,180.21 190.51,181.12 189.01,182.62 188.67,184.72 189.49,187.40"/>
    </edge>
    <edge id=":J4_5" function="internal">
        <lane id=":J4_5_0" index="0" speed="13.89" length="36.05" width="4.00" shape="193.16,180.21 184.63,180.77 174.74,179.90 164.92,178.04 156.63,175.61"/>
        <lane id=":J4_5_1" index="1" speed="13.89" length="36.05" width="4.00" shape="192.41,176.28 184.21,176.86 175.04,176.05 165.96,174.25 158.00,171.85"/>
    </edge>
    <edge id=":J4_7" function="internal">
        <lane id=":J4_7_0" index="0" speed="12.49" length="8.16" width="4.00" shape="192.41,176.28 185.07,176.28 184.32,175.91"/>
    </edge>
    <edge id=":J4_17" function="internal">
        <lane id=":J4_17_0" index="0" speed="12.49" length="24.00" width="4.00" shape="184.32,175.91 178.83,173.25 173.67,167.20 169.60,158.13"/>
    </edge>
    <edge id=":J4_8" function="internal">
        <lane id=":J4_8_0" index="0" speed="10.08" length="20.55" width="4.00" shape="177.19,155.60 179.86,161.85 183.04,166.07 186.72,168.26 190.90,168.42"/>
    </edge>
    <edge id=":J4_9" function="internal">
        <lane id=":J4_9_0" index="0" speed="13.89" length="34.34" width="4.00" shape="177.19,155.60 179.85,163.30 182.94,171.66 186.22,179.94 189.49,187.40"/>
        <lane id=":J4_9_1" index="1" speed="13.89" length="34.34" width="4.00" shape="173.40,156.87 176.08,164.63 179.23,173.14 182.57,181.57 185.86,189.09"/>
    </edge>
    <edge id=":J4_11" function="internal">
        <lane id=":J4_11_0" index="0" speed="9.12" length="4.84" width="4.00" shape="173.40,156.87 173.88,161.68"/>
    </edge>
    <edge id=":J4_18" function="internal">
        <lane id=":J4_18_0" index="0" speed="9.12" length="23.14" width="4.00" shape="173.88,161.68 174.16,164.56 171.32,170.14 165.67,172.83 158.00,171.85"/>
    </edge>
    <edge id=":J4_12" function="internal">
        <lane id=":J4_12_0" index="0" speed="5.89" length="10.53" width="4.00" shape="160.73,164.34 163.92,165.07 165.83,164.49 166.46,162.60 165.81,159.40"/>
    </edge>
    <edge id=":J4_13" function="internal">
        <lane id=":J4_13_0" index="0" speed="13.89" length="31.83" width="4.00" shape="160.73,164.34 168.03,166.68 175.66,168.37 183.37,169.06 190.90,168.42"/>
        <lane id=":J4_13_1" index="1" speed="13.89" length="31.83" width="4.00" shape="159.37,168.10 166.99,170.47 175.35,172.21 183.79,172.96 191.66,172.35"/>
    </edge>
    <edge id=":J4_15" function="internal">
        <lane id=":J4_15_0" index="0" speed="13.89" length="8.02" width="4.00" shape="159.37,168.10 166.65,171.44"/>
    </edge>
    <edge id=":J4_19" function="internal">
        <lane id=":J4_19_0" index="0" speed="13.89" length="26.43" width="4.00" shape="166.65,171.44 166.87,171.54 174.55,176.48 181.26,182.47 185.86,189.09"/>
    </edge>
    <edge id=":J5_0" function="internal">
        <lane id=":J5_0_0" index="0" speed="6.87" length="7.94" width="4.00" shape="244.60,174.91 243.44,173.15 241.97,172.01 240.18,171.51 238.07,171.62"/>
    </edge>
    <edge id=":J5_1" function="internal">
        <lane id=":J5_1_0" index="0" speed="13.40" length="20.61" width="4.00" shape="244.60,174.91 242.57,169.56 241.75,164.46 242.16,159.62 243.78,155.03"/>
        <lane id=":J5_1_1" index="1" speed="12.20" length="16.96" width="4.00" shape="248.20,173.17 246.49,168.71 245.78,164.49 246.06,160.53 247.35,156.82"/>
    </edge>
    <edge id=":J5_3" function="internal">
        <lane id=":J5_3_0" index="0" speed="9.33" length="9.66" width="4.00" shape="254.51,160.40 253.88,162.35 253.82,164.55 254.33,167.00 255.41,169.70"/>
        <lane id=":J5_3_1" index="1" speed="10.86" length="13.31" width="4.00" shape="250.93,158.61 249.97,161.44 249.80,164.52 250.41,167.85 251.81,171.44"/>
    </edge>
    <edge id=":J5_5" function="internal">
        <lane id=":J5_5_0" index="0" speed="12.15" length="3.93" width="4.00" shape="250.93,158.61 248.74,161.87"/>
    </edge>
    <edge id=":J5_9" function="internal">
        <lane id=":J5_9_0" index="0" speed="12.15" length="13.03" width="4.00" shape="248.74,161.87 245.74,164.47 241.93,166.41 237.32,167.70"/>
    </edge>
    <edge id=":J5_6" function="internal">
        <lane id=":J5_6_0" index="0" speed="9.28" length="9.62" width="4.00" shape="235.82,159.84 238.62,159.10 240.88,158.05 242.60,156.69 243.78,155.03"/>
        <lane id=":J5_6_1" index="1" speed="10.81" length="13.29" width="4.00" shape="236.57,163.77 240.27,162.75 243.31,161.26 245.67,159.28 247.35,156.82"/>
    </edge>
    <edge id=":J5_8" function="internal">
        <lane id=":J5_8_0" index="0" speed="10.13" length="18.53" width="4.00" shape="236.57,163.77 241.48,163.49 245.66,164.67 249.10,167.32 251.81,171.44"/>
    </edge>
    <edge id=":J6_0" function="internal">
        <lane id=":J6_0_0" index="0" speed="13.89" length="41.47" width="4.00" shape="92.96,117.74 67.57,84.97"/>
        <lane id=":J6_0_1" index="1" speed="13.89" length="41.47" width="4.00" shape="96.13,115.30 70.72,82.50"/>
    </edge>
    <edge id=":J6_2" function="internal">
        <lane id=":J6_2_0" index="0" speed="8.53" length="3.61" width="4.00" shape="96.13,115.30 94.94,111.89"/>
    </edge>
    <edge id=":J6_9" function="internal">
        <lane id=":J6_9_0" index="0" speed="8.53" length="25.50" width="4.00" shape="94.94,111.89 93.59,108.04 95.91,101.57 101.63,97.77 109.28,98.47"/>
    </edge>
    <edge id=":J6_3" function="internal">
        <lane id=":J6_3_0" index="0" speed="6.00" length="13.21" width="4.00" shape="106.06,105.80 101.76,104.29 99.72,104.55 99.96,106.59 102.46,110.40"/>
    </edge>
    <edge id=":J6_4" function="internal">
        <lane id=":J6_4_0" index="0" speed="13.89" length="43.05" width="4.00" shape="106.06,105.80 97.05,101.95 85.69,96.82 74.90,90.98 67.57,84.97"/>
        <lane id=":J6_4_1" index="1" speed="13.89" length="43.05" width="4.00" shape="107.67,102.14 98.90,98.47 88.08,93.76 77.81,88.32 70.72,82.50"/>
    </edge>
    <edge id=":J6_6" function="internal">
        <lane id=":J6_6_0" index="0" speed="13.89" length="38.30" width="4.00" shape="77.02,77.57 83.63,83.02 92.84,87.63 102.61,91.53 110.89,94.81"/>
    </edge>
    <edge id=":J6_7" function="internal">
        <lane id=":J6_7_0" index="0" speed="13.89" length="41.52" width="4.00" shape="77.02,77.57 102.46,110.40"/>
        <lane id=":J6_7_1" index="1" speed="13.89" length="41.52" width="4.00" shape="73.87,80.04 99.29,112.85"/>
    </edge>
    <edge id=":J7_0" function="internal">
        <lane id=":J7_0_0" index="0" speed="11.39" length="12.92" width="4.00" shape="157.97,135.88 156.46,132.06 154.77,129.06 152.88,126.87 150.81,125.51"/>
        <lane id=":J7_0_1" index="1" speed="12.71" length="16.25" width="4.00" shape="161.76,134.61 159.91,130.01 157.74,126.35 155.24,123.63 152.42,121.85"/>
    </edge>
    <edge id=":J7_2" function="internal">
        <lane id=":J7_2_0" index="0" speed="10.03" length="21.99" width="4.00" shape="161.76,134.61 160.68,128.71 161.72,123.82 164.87,119.94 170.14,117.07"/>
    </edge>
    <edge id=":J7_3" function="internal">
        <lane id=":J7_3_0" index="0" speed="6.80" length="9.43" width="4.00" shape="172.94,124.57 170.69,125.80 169.33,127.46 168.89,129.55 169.35,132.08"/>
    </edge>
    <edge id=":J7_4" function="internal">
        <lane id=":J7_4_0" index="0" speed="13.89" length="22.98" width="4.00" shape="172.94,124.57 166.82,126.76 161.79,127.86 156.81,127.55 150.81,125.51"/>
        <lane id=":J7_4_1" index="1" speed="13.89" length="20.00" width="4.00" shape="171.54,120.82 166.00,122.94 161.90,124.04 157.84,123.79 152.42,121.85"/>
    </edge>
    <edge id=":J7_6" function="internal">
        <lane id=":J7_6_0" index="0" speed="12.39" length="13.75" width="4.00" shape="155.64,114.53 159.36,115.78 162.14,115.78 164.94,114.86 168.74,113.33"/>
        <lane id=":J7_6_1" index="1" speed="13.68" length="16.87" width="4.00" shape="154.03,118.19 158.60,119.78 162.02,119.91 165.47,118.90 170.14,117.07"/>
    </edge>
    <edge id=":J7_8" function="internal">
        <lane id=":J7_8_0" index="0" speed="13.89" length="4.66" width="4.00" shape="154.03,118.19 157.60,120.39 157.92,120.72"/>
    </edge>
    <edge id=":J7_9" function="internal">
        <lane id=":J7_9_0" index="0" speed="13.89" length="14.92" width="4.00" shape="157.92,120.72 160.71,123.65 163.36,127.97 165.56,133.35"/>
    </edge>
    <edge id=":J8_0" function="internal">
        <lane id=":J8_0_0" index="0" speed="13.89" length="31.12" width="4.00" shape="299.62,70.83 285.48,98.46"/>
        <lane id=":J8_0_1" index="1" speed="13.89" length="31.12" width="4.00" shape="296.12,68.89 281.90,96.67"/>
    </edge>
    <edge id=":J8_2" function="internal">
        <lane id=":J8_2_0" index="0" speed="13.89" length="4.52" width="4.00" shape="296.12,68.89 293.12,72.27"/>
    </edge>
    <edge id=":J8_9" function="internal">
        <lane id=":J8_9_0" index="0" speed="13.89" length="27.42" width="4.00" shape="293.12,72.27 291.14,74.51 284.20,78.61 276.42,81.73 268.90,84.40"/>
    </edge>
    <edge id=":J8_3" function="internal">
        <lane id=":J8_3_0" index="0" speed="13.89" length="27.96" width="4.00" shape="266.09,76.91 272.96,74.80 279.30,72.93 284.80,70.07 289.12,65.01"/>
        <lane id=":J8_3_1" index="1" speed="13.89" length="27.96" width="4.00" shape="267.50,80.66 274.69,78.27 281.75,75.77 287.97,72.29 292.62,66.95"/>
    </edge>
    <edge id=":J8_5" function="internal">
        <lane id=":J8_5_0" index="0" speed="8.90" length="28.57" width="4.00" shape="267.50,80.66 275.23,79.89 280.91,83.08 283.48,89.06 281.90,96.67"/>
    </edge>
    <edge id=":J8_6" function="internal">
        <lane id=":J8_6_0" index="0" speed="5.84" length="11.10" width="4.00" shape="274.75,93.09 275.99,89.74 275.67,87.79 273.77,87.26 270.30,88.15"/>
    </edge>
    <edge id=":J8_7" function="internal">
        <lane id=":J8_7_0" index="0" speed="13.89" length="31.46" width="4.00" shape="274.75,93.09 289.12,65.01"/>
        <lane id=":J8_7_1" index="1" speed="13.89" length="31.46" width="4.00" shape="278.32,94.88 292.62,66.95"/>
    </edge>

    <edge id="E_J0_J1_A" from="J0" to="J1" priority="-1">
        <lane id="E_J0_J1_A_0" index="0" speed="13.89" length="69.65" width="4.00" shape="120.46,228.75 190.03,232.16"/>
        <lane id="E_J0_J1_A_1" index="1" speed="13.89" length="69.65" width="4.00" shape="120.27,232.75 189.84,236.16"/>
    </edge>
    <edge id="E_J0_J1_B" from="J1" to="J0" priority="-1">
        <lane id="E_J0_J1_B_0" index="0" speed="13.89" length="69.65" width="4.00" shape="189.45,244.15 119.87,240.74"/>
        <lane id="E_J0_J1_B_1" index="1" speed="13.89" length="69.65" width="4.00" shape="189.64,240.15 120.07,236.74"/>
    </edge>
    <edge id="E_J0_J3_A" from="J0" to="J3" priority="-1">
        <lane id="E_J0_J3_A_0" index="0" speed="13.89" length="51.71" width="4.00" shape="105.03,217.67 124.12,169.61"/>
        <lane id="E_J0_J3_A_1" index="1" speed="13.89" length="51.71" width="4.00" shape="108.75,219.15 127.84,171.09"/>
    </edge>
    <edge id="E_J0_J3_B" from="J3" to="J0" priority="-1">
        <lane id="E_J0_J3_B_0" index="0" speed="13.89" length="51.71" width="4.00" shape="135.27,174.04 116.18,222.10"/>
        <lane id="E_J0_J3_B_1" index="1" speed="13.89" length="51.71" width="4.00" shape="131.56,172.57 112.47,220.62"/>
    </edge>
    <edge id="E_J1_J2_A" from="J1" to="J2" priority="-1">
        <lane id="E_J1_J2_A_0" index="0" speed="13.89" length="53.51" width="4.00" shape="216.10,234.09 269.19,240.73"/>
        <lane id="E_J1_J2_A_1" index="1" speed="13.89" length="53.51" width="4.00" shape="215.60,238.06 268.70,244.70"/>
    </edge>
    <edge id="E_J1_J2_B" from="J2" to="J1" priority="-1">
        <lane id="E_J1_J2_B_0" index="0" speed="13.89" length="53.51" width="4.00" shape="267.70,252.63 214.61,246.00"/>
        <lane id="E_J1_J2_B_1" index="1" speed="13.89" length="53.51" width="4.00" shape="268.20,248.67 215.10,242.03"/>
    </edge>
    <edge id="E_J1_J4_A" from="J1" to="J4" priority="-1">
        <lane id="E_J1_J4_A_0" index="0" speed="13.89" length="36.88" width="4.00" shape="194.24,225.89 178.62,192.48"/>
        <lane id="E_J1_J4_A_1" index="1" speed="13.89" length="36.88" width="4.00" shape="197.87,224.19 182.24,190.79"/>
    </edge>
    <edge id="E_J1_J4_B" from="J4" to="J1" priority="-1">
        <lane id="E_J1_J4_B_0" index="0" speed="13.89" length="36.88" width="4.00" shape="189.49,187.40 205.11,220.80"/>
        <lane id="E_J1_J4_B_1" index="1" speed="13.89" length="36.88" width="4.00" shape="185.86,189.09 201.49,222.50"/>
    </edge>
    <edge id="E_J2_J5_A" from="J2" to="J5" priority="-1">
        <lane id="E_J2_J5_A_0" index="0" speed="13.89" length="66.46" width="4.00" shape="273.47,234.77 244.60,174.91"/>
        <lane id="E_J2_J5_A_1" index="1" speed="13.89" length="66.46" width="4.00" shape="277.08,233.03 248.20,173.17"/>
    </edge>
    <edge id="E_J2_J5_B" from="J5" to="J2" priority="-1">
        <lane id="E_J2_J5_B_0" index="0" speed="13.89" length="66.46" width="4.00" shape="255.41,169.70 284.28,229.55"/>
        <lane id="E_J2_J5_B_1" index="1" speed="13.89" length="66.46" width="4.00" shape="251.81,171.44 280.68,231.29"/>
    </edge>
    <edge id="E_J3_J4_A" from="J3" to="J4" priority="-1">
        <lane id="E_J3_J4_A_0" index="0" speed="13.89" length="14.61" width="4.00" shape="147.00,159.34 160.73,164.34"/>
        <lane id="E_J3_J4_A_1" index="1" speed="13.89" length="14.61" width="4.00" shape="145.63,163.10 159.37,168.10"/>
    </edge>
    <edge id="E_J3_J4_B" from="J4" to="J3" priority="-1">
        <lane id="E_J3_J4_B_0" index="0" speed="13.89" length="14.61" width="4.00" shape="156.63,175.61 142.90,170.62"/>
        <lane id="E_J3_J4_B_1" index="1" speed="13.89" length="14.61" width="4.00" shape="158.00,171.85 144.27,166.86"/>
    </edge>
    <edge id="E_J3_J6_A" from="J3" to="J6" priority="-1">
        <lane id="E_J3_J6_A_0" index="0" speed="13.89" length="50.88" width="4.00" shape="124.09,157.99 92.96,117.74"/>
        <lane id="E_J3_J6_A_1" index="1" speed="13.89" length="50.88" width="4.00" shape="127.25,155.54 96.13,115.30"/>
    </edge>
    <edge id="E_J3_J6_B" from="J6" to="J3" priority="-1">
        <lane id="E_J3_J6_B_0" index="0" speed="13.89" length="50.88" width="4.00" shape="102.46,110.40 133.58,150.65"/>
        <lane id="E_J3_J6_B_1" index="1" speed="13.89" length="50.88" width="4.00" shape="99.29,112.85 130.42,153.10"/>
    </edge>
    <edge id="E_J4_J5_A" from="J4" to="J5" priority="-1">
        <lane id="E_J4_J5_A_0" index="0" speed="13.89" length="45.73" width="4.00" shape="190.90,168.42 235.82,159.84"/>
        <lane id="E_J4_J5_A_1" index="1" speed="13.89" length="45.73" width="4.00" shape="191.66,172.35 236.57,163.77"/>
    </edge>
    <edge id="E_J4_J5_B" from="J5" to="J4" priority="-1">
        <lane id="E_J4_J5_B_0" index="0" speed="13.89" length="45.73" width="4.00" shape="238.07,171.62 193.16,180.21"/>
        <lane id="E_J4_J5_B_1" index="1" speed="13.89" length="45.73" width="4.00" shape="237.32,167.70 192.41,176.28"/>
    </edge>
    <edge id="E_J4_J7_A" from="J4" to="J7" priority="-1">
        <lane id="E_J4_J7_A_0" index="0" speed="13.89" length="24.79" width="4.00" shape="165.81,159.40 157.97,135.88"/>
        <lane id="E_J4_J7_A_1" index="1" speed="13.89" length="24.79" width="4.00" shape="169.60,158.13 161.76,134.61"/>
    </edge>
    <edge id="E_J4_J7_B" from="J7" to="J4" priority="-1">
        <lane id="E_J4_J7_B_0" index="0" speed="13.89" length="24.79" width="4.00" shape="169.35,132.08 177.19,155.60"/>
        <lane id="E_J4_J7_B_1" index="1" speed="13.89" length="24.79" width="4.00" shape="165.56,133.35 173.40,156.87"/>
    </edge>
    <edge id="E_J5_J8_A" from="J5" to="J8" priority="-1">
        <lane id="E_J5_J8_A_0" index="0" speed="13.89" length="69.25" width="4.00" shape="243.78,155.03 274.75,93.09"/>
        <lane id="E_J5_J8_A_1" index="1" speed="13.89" length="69.25" width="4.00" shape="247.35,156.82 278.32,94.88"/>
    </edge>
    <edge id="E_J5_J8_B" from="J8" to="J5" priority="-1">
        <lane id="E_J5_J8_B_0" index="0" speed="13.89" length="69.25" width="4.00" shape="285.48,98.46 254.51,160.40"/>
        <lane id="E_J5_J8_B_1" index="1" speed="13.89" length="69.25" width="4.00" shape="281.90,96.67 250.93,158.61"/>
    </edge>
    <edge id="E_J6_J7_A" from="J6" to="J7" priority="-1">
        <lane id="E_J6_J7_A_0" index="0" speed="13.89" length="48.90" width="4.00" shape="110.89,94.81 155.64,114.53"/>
        <lane id="E_J6_J7_A_1" index="1" speed="13.89" length="48.90" width="4.00" shape="109.28,98.47 154.03,118.19"/>
    </edge>
    <edge id="E_J6_J7_B" from="J7" to="J6" priority="-1">
        <lane id="E_J6_J7_B_0" index="0" speed="13.89" length="48.90" width="4.00" shape="150.81,125.51 106.06,105.80"/>
        <lane id="E_J6_J7_B_1" index="1" speed="13.89" length="48.90" width="4.00" shape="152.42,121.85 107.67,102.14"/>
    </edge>
    <edge id="E_J7_J8_A" from="J7" to="J8" priority="-1">
        <lane id="E_J7_J8_A_0" index="0" speed="13.89" length="103.94" width="4.00" shape="168.74,113.33 266.09,76.91"/>
        <lane id="E_J7_J8_A_1" index="1" speed="13.89" length="103.94" width="4.00" shape="170.14,117.07 267.50,80.66"/>
    </edge>
    <edge id="E_J7_J8_B" from="J8" to="J7" priority="-1">
        <lane id="E_J7_J8_B_0" index="0" speed="13.89" length="103.94" width="4.00" shape="270.30,88.15 172.94,124.57"/>
        <lane id="E_J7_J8_B_1" index="1" speed="13.89" length="103.94" width="4.00" shape="268.90,84.40 171.54,120.82"/>
    </edge>
    <edge id="E_NE_A" from="N_NE" to="J2" priority="-1">
        <lane id="E_NE_A_0" index="0" speed="13.89" length="110.72" width="4.00" shape="335.65,357.72 285.40,259.07"/>
        <lane id="E_NE_A_1" index="1" speed="13.89" length="110.72" width="4.00" shape="339.22,355.91 288.96,257.25"/>
    </edge>
    <edge id="E_NE_B" from="J2" to="N_NE" priority="-1">
        <lane id="E_NE_B_0" index="0" speed="13.89" length="110.72" width="4.00" shape="296.09,253.62 346.35,352.28"/>
        <lane id="E_NE_B_1" index="1" speed="13.89" length="110.72" width="4.00" shape="292.52,255.44 342.78,354.09"/>
    </edge>
    <edge id="E_NW_A" from="N_NW" to="J0" priority="-1">
        <lane id="E_NW_A_0" index="0" speed="13.89" length="142.32" width="4.00" shape="-4.28,336.80 95.40,235.22"/>
        <lane id="E_NW_A_1" index="1" speed="13.89" length="142.32" width="4.00" shape="-1.43,339.60 98.26,238.02"/>
    </edge>
    <edge id="E_NW_B" from="J0" to="N_NW" priority="-1">
        <lane id="E_NW_B_0" index="0" speed="13.89" length="142.32" width="4.00" shape="103.97,243.62 4.28,345.20"/>
        <lane id="E_NW_B_1" index="1" speed="13.89" length="142.32" width="4.00" shape="101.11,240.82 1.43,342.40"/>
    </edge>
    <edge id="E_SE_A" from="N_SE" to="J8" priority="-1">
        <lane id="E_SE_A_0" index="0" speed="13.89" length="77.65" width="4.00" shape="337.25,2.91 299.62,70.83"/>
        <lane id="E_SE_A_1" index="1" speed="13.89" length="77.65" width="4.00" shape="333.75,0.97 296.12,68.89"/>
    </edge>
    <edge id="E_SE_B" from="J8" to="N_SE" priority="-1">
        <lane id="E_SE_B_0" index="0" speed="13.89" length="77.65" width="4.00" shape="289.12,65.01 326.75,-2.91"/>
        <lane id="E_SE_B_1" index="1" speed="13.89" length="77.65" width="4.00" shape="292.62,66.95 330.25,-0.97"/>
    </edge>
    <edge id="E_SW_A" from="N_SW" to="J6" priority="-1">
        <lane id="E_SW_A_0" index="0" speed="13.89" length="81.61" width="4.00" shape="26.73,13.30 77.02,77.57"/>
        <lane id="E_SW_A_1" index="1" speed="13.89" length="81.61" width="4.00" shape="23.58,15.77 73.87,80.04"/>
    </edge>
    <edge id="E_SW_B" from="J6" to="N_SW" priority="-1">
        <lane id="E_SW_B_0" index="0" speed="13.89" length="81.61" width="4.00" shape="67.57,84.97 17.27,20.70"/>
        <lane id="E_SW_B_1" index="1" speed="13.89" length="81.61" width="4.00" shape="70.72,82.50 20.42,18.23"/>
    </edge>

    <tlLogic id="J0" type="static" programID="0" offset="0">
        <phase duration="42" state="rrrGGGGGg"/>
        <phase duration="3"  state="rrrGyyyyy"/>
        <phase duration="42" state="GGGGrrrrr"/>
        <phase duration="3"  state="yyyGrrrrr"/>
    </tlLogic>
    <tlLogic id="J1" type="static" programID="0" offset="0">