<?xml version="1.0" ?>
<routes>
    <trip id="bus_0" type="bus" depart="0.0" from="E_NW_A" to="E_SE_B" departLane="random" departSpeed="11.02"/>
    <trip id="car_25" type="car" depart="0.0" from="E_NE_A" to="E_SW_B" departLane="random" departSpeed="10.8"/>
    <trip id="truck_1" type="truck" depart="2.0" from="E_NW_A" to="E_SE_B" departLane="random" departSpeed="11.82"/>
    <trip id="bus_26" type="bus" depart="2.0" from="E_NE_A" to="E_SW_B" departLane="random" departSpeed="9.77"/>
    <trip id="bus_2" type="bus" depart="4.0" from="E_NW_A" to="E_SE_B" departLane="random" departSpeed="12.48"/>
    <trip id="bike_27" type="bike" depart="4.0" from="E_NE_A" to="E_SW_B" departLane="random" departSpeed="10.25"/>
    <trip id="truck_3" type="truck" depart="6.0" from="E_NW_A" to="E_SE_B" departLane="random" departSpeed="8.7"/>
    <trip id="ambulance_28" type="ambulance" depart="6.0" from="E_NE_A" to="E_SW_B" departLane="random" departSpeed="4.63"/>
    <trip id="car_4" type="car" depart="8.0" from="E_NW_A" to="E_SE_B" departLane="random" departSpeed="8.07"/>
    <trip id="truck_29" type="truck" depart="8.0" from="E_NE_A" to="E_SW_B" departLane="random" departSpeed="7.14"/>
    <trip id="truck_5" type="truck" depart="10.0" from="E_NW_A" to="E_SE_B" departLane="random" departSpeed="7.92"/>
    <trip id="truck_30" type="truck" depart="10.0" from="E_NE_A" to="E_SW_B" departLane="random" departSpeed="7.17"/>
    <trip id="bus_6" type="bus" depart="12.0" from="E_NW_A" to="E_SE_B" departLane="random" departSpeed="5.98"/>
    <trip id="ambulance_31" type="ambulance" depart="12.0" from="E_NE_A" to="E_SW_B" departLane="random" departSpeed="10.71"/>
    <trip id="bus_7" type="bus" depart="14.0" from="E_NW_A" to="E_SE_B" departLane="random" departSpeed="4.57"/>
    <trip id="bike_32" type="bike" depart="14.0" from="E_NE_A" to="E_SW_B" departLane="random" departSpeed="11.1"/>
    <trip id="bike_8" type="bike" depart="16.0" from="E_NW_A" to="E_SE_B" departLane="random" departSpeed="10.06"/>
    <trip id="car_33" type="car" depart="16.0" from="E_NE_A" to="E_SW_B" departLane="random" departSpeed="7.25"/>
    <trip id="ambulance_9" type="ambulance" depart="18.0" from="E_NW_A" to="E_SE_B" departLane="random" departSpeed="12.35"/>
    <trip id="car_34" type="car" depart="18.0" from="E_NE_A" to="E_SW_B" departLane="random" departSpeed="12.28"/>
    <trip id="bike_10" type="bike" depart="20.0" from="E_NW_A" to="E_SE_B" departLane="random" departSpeed="9.41"/>
    <trip id="truck_35" type="truck" depart="20.0" from="E_NE_A" to="E_SW_B" departLane="random" departSpeed="9.98"/>
    <trip id="car_11" type="car" depart="22.0" from="E_NW_A" to="E_SE_B" departLane="random" departSpeed="7.68"/>
    <trip id="ambulance_36" type="ambulance" depart="22.0" from="E_NE_A" to="E_SW_B" departLane="random" departSpeed="11.85"/>
    <trip id="car_12" type="car" depart="24.0" from="E_NW_A" to="E_SE_B" departLane="random" departSpeed="9.8"/>
    <trip id="car_37" type="car" depart="24.0" from="E_NE_A" to="E_SW_B" departLane="random" departSpeed="5.61"/>
    <trip id="truck_13" type="truck" depart="26.0" from="E_NW_A" to="E_SE_B" departLane="random" departSpeed="5.32"/>
    <trip id="bus_38" type="bus" depart="26.0" from="E_NE_A" to="E_SW_B" departLane="random" departSpeed="8.85"/>
    <trip id="car_14" type="car" depart="28.0" from="E_NW_A" to="E_SE_B" departLane="random" departSpeed="6.49"/>
    <trip id="bike_39" type="bike" depart="28.0" from="E_NE_A" to="E_SW_B" departLane="random" departSpeed="7.54"/>
    <trip id="truck_15" type="truck" depart="30.0" from="E_NW_A" to="E_SE_B" departLane="random" departSpeed="9.61"/>
    <trip id="bus_40" type="bus" depart="30.0" from="E_NE_A" to="E_SW_B" departLane="random" departSpeed="5.89"/>
    <trip id="bike_16" type="bike" depart="32.0" from="E_NW_A" to="E_SE_B" departLane="random" departSpeed="11.19"/>
    <trip id="bus_41" type="bus" depart="32.0" from="E_NE_A" to="E_SW_B" departLane="random" departSpeed="12.27"/>
    <trip id="ambulance_17" type="ambulance" depart="34.0" from="E_NW_A" to="E_SE_B" departLane="random" departSpeed="7.62"/>
    <trip id="truck_42" type="truck" depart="34.0" from="E_NE_A" to="E_SW_B" departLane="random" departSpeed="9.48"/>
    <trip id="bus_18" type="bus" depart="36.0" from="E_NW_A" to="E_SE_B" departLane="random" departSpeed="9.03"/>
    <trip id="car_43" type="car" depart="36.0" from="E_NE_A" to="E_SW_B" departLane="random" departSpeed="5.52"/>
    <trip id="bike_19" type="bike" depart="38.0" from="E_NW_A" to="E_SE_B" departLane="random" departSpeed="6.59"/>
    <trip id="bike_44" type="bike" depart="38.0" from="E_NE_A" to="E_SW_B" departLane="random" departSpeed="12.06"/>
    <trip id="ambulance_20" type="ambulance" depart="40.0" from="E_NW_A" to="E_SE_B" departLane="random" departSpeed="11.91"/>
    <trip id="bike_45" type="bike" depart="40.0" from="E_NE_A" to="E_SW_B" departLane="random" departSpeed="9.57"/>
    <trip id="ambulance_21" type="ambulance" depart="42.0" from="E_NW_A" to="E_SE_B" departLane="random" departSpeed="7.43"/>
    <trip id="ambulance_46" type="ambulance" depart="42.0" from="E_NE_A" to="E_SW_B" departLane="random" departSpeed="5.09"/>
    <trip id="bike_22" type="bike" depart="44.0" from="E_NW_A" to="E_SE_B" departLane="random" departSpeed="9.29"/>
    <trip id="truck_47" type="truck" depart="44.0" from="E_NE_A" to="E_SW_B" departLane="random" departSpeed="11.62"/>
    <trip id="car_23" type="car" depart="46.0" from="E_NW_A" to="E_SE_B" departLane="random" departSpeed="6.06"/>
    <trip id="ambulance_48" type="ambulance" depart="46.0" from="E_NE_A" to="E_SW_B" departLane="random" departSpeed="4.95"/>
    <trip id="ambulance_24" type="ambulance" depart="48.0" from="E_NW_A" to="E_SE_B" departLane="random" departSpeed="11.19"/>
    <trip id="bus_49" type="bus" depart="48.0" from="E_NE_A" to="E_SW_B" departLane="random" departSpeed="8.36"/>
</routes>
